@<TRIPOS>MOLECULE
Cpptraj generated mol2 file.
  220   227    13     0     0
SMALL
USER_CHARGES


@<TRIPOS>ATOM
      1 N           6.3704   -2.2673   -7.7884 N3         1 SER      0.184900
      2 H1          7.1069   -2.2855   -8.4793 H          1 SER      0.189800
      3 H2          6.0118   -3.2092   -7.8528 H          1 SER      0.189800
      4 H3          6.6984   -2.2776   -6.8332 H          1 SER      0.189800
      5 CA          5.3227   -1.2732   -8.1293 CX         1 SER      0.056700
      6 HA          5.8511   -0.3199   -8.1383 HP         1 SER      0.078200
      7 CB          4.6316   -1.4264   -9.5264 CT         1 SER      0.259600
      8 HB2         5.4189   -1.5475  -10.2704 H1         1 SER      0.027300
      9 HB3         3.9570   -2.2777   -9.6174 H1         1 SER      0.027300
     10 OG          3.8864   -0.3069   -9.9448 OH         1 SER     -0.671400
     11 HG          3.9042   -0.2242  -10.9011 HO         1 SER      0.423900
     12 C           4.3660   -1.3546   -6.9439 C          1 SER      0.616300
     13 O           4.1834   -2.4785   -6.4072 O          1 SER     -0.572200
     14 N           3.7953   -0.2667   -6.5043 N          2 TRP     -0.415700
     15 H           4.0141    0.5469   -7.0614 H          2 TRP      0.271900
     16 CA          2.6066   -0.2558   -5.6387 CX         2 TRP     -0.027500
     17 HA          2.8938   -0.9934   -4.8893 H1         2 TRP      0.112300
     18 CB          2.4584    1.2291   -5.0088 CT         2 TRP     -0.005000
     19 HB2         2.7265    1.9091   -5.8173 HC         2 TRP      0.033900
     20 HB3         1.4234    1.4131   -4.7206 HC         2 TRP      0.033900
     21 CG          3.3003    1.3367   -3.7564 C*         2 TRP     -0.141500
     22 CD1         4.4920    2.0241   -3.5990 CW         2 TRP     -0.163800
     23 HD1         4.9649    2.6095   -4.3736 H4         2 TRP      0.206200
     24 NE1         5.0239    1.8204   -2.3363 NA         2 TRP     -0.341800
     25 HE1         5.8674    2.2499   -1.9838 H          2 TRP      0.341200
     26 CE2         4.1855    1.0800   -1.5459 CN         2 TRP      0.138000
     27 CZ2         4.2883    0.6289   -0.2499 CA         2 TRP     -0.260100
     28 HZ2         5.1798    0.7448    0.3486 HA         2 TRP      0.157200
     29 CH2         3.1932    0.0081    0.3500 CA         2 TRP     -0.113400
     30 HH2         3.2033   -0.1804    1.4134 HA         2 TRP      0.141700
     31 CZ3         2.0301   -0.2466   -0.3725 CA         2 TRP     -0.197200
     32 HZ3         1.1876   -0.7635    0.0627 HA         2 TRP      0.144700
     33 CE3         1.9943   -0.0087   -1.7880 CA         2 TRP     -0.238700
     34 HE3         1.0979   -0.3122   -2.3085 HA         2 TRP      0.170000
     35 CD2         2.9999    0.7568   -2.4026 CB         2 TRP      0.124300
     36 C           1.3518   -0.6894   -6.4884 C          2 TRP      0.597300
     37 O           0.8779    0.0738   -7.3367 O          2 TRP     -0.567900
     38 N           0.7977   -1.9236   -6.1934 N          3 THR     -0.415700
     39 H           1.0916   -2.4727   -5.3983 H          3 THR      0.271900
     40 CA         -0.2710   -2.4436   -7.0597 CX         3 THR     -0.038900
     41 HA         -0.6127   -1.6245   -7.6924 H1         3 THR      0.100700
     42 CB          0.1690   -3.6286   -7.8524 CT         3 THR      0.365400
     43 HB          0.1123   -4.4898   -7.1866 H1         3 THR      0.004300
     44 CG2        -0.7175   -3.7740   -9.1328 CT         3 THR     -0.243800
     45 HG21       -0.3032   -4.6115   -9.6941 HC         3 THR      0.064200
     46 HG22       -1.7365   -4.0448   -8.8562 HC         3 THR      0.064200
     47 HG23       -0.7326   -2.8838   -9.7617 HC         3 THR      0.064200
     48 OG1         1.4593   -3.6481   -8.3680 OH         3 THR     -0.676100
     49 HG1         2.0848   -3.2945   -7.7312 HO         3 THR      0.410200
     50 C          -1.4638   -2.9122   -6.1597 C          3 THR      0.597300
     51 O          -1.3173   -3.3223   -4.9896 O          3 THR     -0.567900
     52 N          -2.6707   -2.8267   -6.7091 N          4 TRP     -0.415700
     53 H          -2.8250   -2.6587   -7.6930 H          4 TRP      0.271900
     54 CA         -3.7833   -3.4105   -5.9650 CX         4 TRP     -0.027500
     55 HA         -3.6866   -3.2787   -4.8873 H1         4 TRP      0.112300
     56 CB         -5.1090   -2.8380   -6.4025 CT         4 TRP     -0.005000
     57 HB2        -5.1325   -1.7508   -6.4769 HC         4 TRP      0.033900
     58 HB3        -5.2377   -3.1965   -7.4238 HC         4 TRP      0.033900
     59 CG         -6.2892   -3.1606   -5.5718 C*         4 TRP     -0.141500
     60 CD1        -7.1431   -4.1723   -5.9039 CW         4 TRP     -0.163800
     61 HD1        -6.9693   -4.7614   -6.7922 H4         4 TRP      0.206200
     62 NE1        -8.0884   -4.4599   -4.9428 NA         4 TRP     -0.341800
     63 HE1        -8.7941   -5.1823   -4.9561 H          4 TRP      0.341200
     64 CE2        -8.0012   -3.5213   -3.9541 CN         4 TRP      0.138000
     65 CZ2        -8.7144   -3.3597   -2.7857 CA         4 TRP     -0.260100
     66 HZ2        -9.6103   -3.9217   -2.5665 HA         4 TRP      0.157200
     67 CH2        -8.3301   -2.2905   -1.9174 CA         4 TRP     -0.113400
     68 HH2        -8.9004   -2.0783   -1.0252 HA         4 TRP      0.141700
     69 CZ3        -7.1707   -1.5767   -2.1943 CA         4 TRP     -0.197200
     70 HZ3        -6.8162   -0.8968   -1.4338 HA         4 TRP      0.144700
     71 CE3        -6.4307   -1.7478   -3.3531 CA         4 TRP     -0.238700
     72 HE3        -5.5283   -1.1799   -3.5250 HA         4 TRP      0.170000
     73 CD2        -6.8100   -2.7601   -4.2898 CB         4 TRP      0.124300
     74 C          -3.7509   -5.0168   -6.0825 C          4 TRP      0.597300
     75 O          -3.6213   -5.5153   -7.1758 O          4 TRP     -0.567900
     76 N          -3.9772   -5.7163   -4.9965 N          5 GLU     -0.516300
     77 H          -4.0718   -5.2160   -4.1243 H          5 GLU      0.293600
     78 CA         -4.0903   -7.2302   -4.9106 CX         5 GLU      0.039700
     79 HA         -4.6477   -7.5968   -5.7725 H1         5 GLU      0.110500
     80 CB         -2.6904   -7.8617   -5.0253 CT         5 GLU      0.056000
     81 HB2        -2.2065   -7.5796   -5.9604 HC         5 GLU     -0.017300
     82 HB3        -2.1139   -7.4259   -4.2093 HC         5 GLU     -0.017300
     83 CG         -2.7572   -9.4072   -4.8418 CT         5 GLU      0.013600
     84 HG2        -3.1709   -9.7430   -3.8909 HC         5 GLU     -0.042500
     85 HG3        -3.5070   -9.7392   -5.5599 HC         5 GLU     -0.042500
     86 CD         -1.3795  -10.1187   -5.0929 C          5 GLU      0.805400
     87 OE1        -0.7986  -10.6858   -4.1334 O2         5 GLU     -0.818800
     88 OE2        -0.8597  -10.1110   -6.2618 O2         5 GLU     -0.818800
     89 C          -4.6903   -7.6681   -3.5596 C          5 GLU      0.536600
     90 O          -4.5194   -7.0037   -2.5158 O          5 GLU     -0.581900
     91 N          -5.5113   -8.7218   -3.6270 N          6 ASN     -0.415700
     92 H          -5.6730   -9.1704   -4.5174 H          6 ASN      0.271900
     93 CA         -6.1342   -9.4171   -2.4146 CX         6 ASN      0.014300
     94 HA         -6.9568  -10.0242   -2.7926 H1         6 ASN      0.104800
     95 CB         -5.1283  -10.3367   -1.8335 CT         6 ASN     -0.204100
     96 HB2        -4.1921   -9.7790   -1.8547 HC         6 ASN      0.079700
     97 HB3        -5.5025  -10.6644   -0.8636 HC         6 ASN      0.079700
     98 CG         -4.9403  -11.6444   -2.5883 C          6 ASN      0.713000
     99 OD1        -5.0276  -11.6837   -3.7683 O          6 ASN     -0.593100
    100 ND2        -4.6369  -12.7196   -1.9407 N          6 ASN     -0.919100
    101 HD21       -4.3984  -12.6704   -0.9605 H          6 ASN      0.419600
    102 HD22       -4.4626  -13.5126   -2.5414 H          6 ASN      0.419600
    103 C          -6.7447   -8.4444   -1.3602 C          6 ASN      0.597300
    104 O          -6.4376   -8.3374   -0.1878 O          6 ASN     -0.567900
    105 N          -7.6317   -7.6311   -1.8941 N          7 GLY     -0.415700
    106 H          -7.7509   -7.6384   -2.8970 H          7 GLY      0.271900
    107 CA         -8.5715   -6.7736   -1.1103 CX         7 GLY     -0.025200
    108 HA2        -9.2658   -6.4279   -1.8762 H1         7 GLY      0.069800
    109 HA3        -9.0388   -7.3880   -0.3408 H1         7 GLY      0.069800
    110 C          -7.8677   -5.5808   -0.3943 C          7 GLY      0.597300
    111 O          -8.4743   -5.0590    0.5572 O          7 GLY     -0.567900
    112 N          -6.6258   -5.1638   -0.7181 N          8 LYS     -0.347900
    113 H          -6.0882   -5.6468   -1.4237 H          8 LYS      0.274700
    114 CA         -5.7777   -4.1548    0.0306 CX         8 LYS     -0.240000
    115 HA         -6.4132   -3.3595    0.4202 H1         8 LYS      0.142600
    116 CB         -4.8868   -4.7381    1.2208 CT         8 LYS     -0.009400
    117 HB2        -5.4637   -5.6004    1.5550 HC         8 LYS      0.036200
    118 HB3        -3.8993   -5.0124    0.8498 HC         8 LYS      0.036200
    119 CG         -4.7530   -3.7408    2.4229 CT         8 LYS      0.018700
    120 HG2        -3.9248   -4.1355    3.0115 HC         8 LYS      0.010300
    121 HG3        -4.5684   -2.7164    2.0997 HC         8 LYS      0.010300
    122 CD         -5.8323   -3.6999    3.5610 CT         8 LYS     -0.047900
    123 HD2        -6.6773   -3.2924    3.0060 HC         8 LYS      0.062100
    124 HD3        -5.9790   -4.7363    3.8652 HC         8 LYS      0.062100
    125 CE         -5.4032   -2.7845    4.7492 CT         8 LYS     -0.014300
    126 HE2        -4.4498   -3.1840    5.0951 HP         8 LYS      0.113500
    127 HE3        -5.2520   -1.7587    4.4133 HP         8 LYS      0.113500
    128 NZ         -6.4325   -2.8554    5.8578 N3         8 LYS     -0.385400
    129 HZ1        -7.3705   -2.5940    5.5896 H          8 LYS      0.340000
    130 HZ2        -6.5088   -3.7905    6.2320 H          8 LYS      0.340000
    131 HZ3        -6.2773   -2.1824    6.5948 H          8 LYS      0.340000
    132 C          -4.7449   -3.5745   -1.0329 C          8 LYS      0.734100
    133 O          -4.4588   -4.1911   -2.0698 O          8 LYS     -0.589400
    134 N          -4.0968   -2.4871   -0.6478 N          9 TRP     -0.415700
    135 H          -4.3451   -2.0319    0.2190 H          9 TRP      0.271900
    136 CA         -2.8895   -2.1136   -1.3822 CX         9 TRP     -0.027500
    137 HA         -3.0131   -2.2518   -2.4564 H1         9 TRP      0.112300
    138 CB         -2.5537   -0.6190   -1.1089 CT         9 TRP     -0.005000
    139 HB2        -2.8499   -0.5035   -0.0663 HC         9 TRP      0.033900
    140 HB3        -1.4891   -0.4454   -1.2655 HC         9 TRP      0.033900
    141 CG         -3.3478    0.3825   -1.9364 C*         9 TRP     -0.141500
    142 CD1        -4.2826    1.1834   -1.4073 CW         9 TRP     -0.163800
    143 HD1        -4.4132    1.3069   -0.3424 H4         9 TRP      0.206200
    144 NE1        -4.8667    1.8481   -2.3934 NA         9 TRP     -0.341800
    145 HE1        -5.6214    2.5171   -2.3384 H          9 TRP      0.341200
    146 CE2        -4.4542    1.4034   -3.6639 CN         9 TRP      0.138000
    147 CZ2        -4.8024    1.7010   -4.9982 CA         9 TRP     -0.260100
    148 HZ2        -5.5850    2.4321   -5.1372 HA         9 TRP      0.157200
    149 CH2        -4.1096    1.1775   -6.0962 CA         9 TRP     -0.113400
    150 HH2        -4.2236    1.6187   -7.0754 HA         9 TRP      0.141700
    151 CZ3        -2.9497    0.4251   -5.8456 CA         9 TRP     -0.197200
    152 HZ3        -2.3130    0.1835   -6.6838 HA         9 TRP      0.144700
    153 CE3        -2.6064    0.0503   -4.4976 CA         9 TRP     -0.238700
    154 HE3        -1.7218   -0.5510   -4.3480 HA         9 TRP      0.170000
    155 CD2        -3.3150    0.5710   -3.3785 CB         9 TRP      0.124300
    156 C          -1.6975   -3.0308   -0.9419 C          9 TRP      0.597300
    157 O          -1.5225   -3.3581    0.2375 O          9 TRP     -0.567900
    158 N          -0.7991   -3.2612   -1.8329 N         10 THR     -0.415700
    159 H          -0.8170   -2.9476   -2.7928 H         10 THR      0.271900
    160 CA          0.4501   -3.9644   -1.4909 CX        10 THR     -0.038900
    161 HA          0.7644   -3.6608   -0.4923 H1        10 THR      0.100700
    162 CB          0.1660   -5.4812   -1.3869 CT        10 THR      0.365400
    163 HB         -0.8375   -5.4712   -0.9615 H1        10 THR      0.004300
    164 CG2         0.0519   -6.1583   -2.6969 CT        10 THR     -0.243800
    165 HG21       -0.5874   -5.6924   -3.4468 HC        10 THR      0.064200
    166 HG22        1.0383   -6.2201   -3.1564 HC        10 THR      0.064200
    167 HG23       -0.3580   -7.1277   -2.4136 HC        10 THR      0.064200
    168 OG1         1.1834   -5.9905   -0.5614 OH        10 THR     -0.676100
    169 HG1         1.1168   -5.5623    0.2952 HO        10 THR      0.410200
    170 C           1.5674   -3.7109   -2.3836 C         10 THR      0.597300
    171 O           1.3395   -3.0189   -3.3399 O         10 THR     -0.567900
    172 N           2.7671   -4.3010   -2.1691 N         11 TRP     -0.415700
    173 H           2.8346   -4.9548   -1.4022 H         11 TRP      0.271900
    174 CA          4.0250   -4.1154   -2.8640 CX        11 TRP     -0.027500
    175 HA          3.9340   -3.2735   -3.5504 H1        11 TRP      0.112300
    176 CB          5.0903   -3.6908   -1.9029 CT        11 TRP     -0.005000
    177 HB2         4.8445   -2.6917   -1.5430 HC        11 TRP      0.033900
    178 HB3         5.1146   -4.2963   -0.9969 HC        11 TRP      0.033900
    179 CG          6.4288   -3.6024   -2.4534 C*        11 TRP     -0.141500
    180 CD1         7.4103   -4.5068   -2.1715 CW        11 TRP     -0.163800
    181 HD1         7.2328   -5.2948   -1.4545 H4        11 TRP      0.206200
    182 NE1         8.5252   -4.2216   -2.9654 NA        11 TRP     -0.341800
    183 HE1         9.3774   -4.7636   -2.9512 H         11 TRP      0.341200
    184 CE2         8.2737   -3.1236   -3.7046 CN        11 TRP      0.138000
    185 CZ2         8.9739   -2.4705   -4.7312 CA        11 TRP     -0.260100
    186 HZ2         9.9717   -2.7624   -5.0238 HA        11 TRP      0.157200
    187 CH2         8.3522   -1.4452   -5.4271 CA        11 TRP     -0.113400
    188 HH2         8.7541   -1.1381   -6.3814 HA        11 TRP      0.141700
    189 CZ3         7.1586   -0.9077   -5.0495 CA        11 TRP     -0.197200
    190 HZ3         6.8691   -0.0433   -5.6286 HA        11 TRP      0.144700
    191 CE3         6.3908   -1.5334   -4.0793 CA        11 TRP     -0.238700
    192 HE3         5.4207   -1.2149   -3.7272 HA        11 TRP      0.170000
    193 CD2         6.9716   -2.6907   -3.4420 CB        11 TRP      0.124300
    194 C           4.4152   -5.4020   -3.6628 C         11 TRP      0.597300
    195 O           4.2970   -6.4981   -3.0567 O         11 TRP     -0.567900
    196 N           4.9199   -5.1886   -4.8208 N         12 LYS     -0.347900
    197 H           5.0600   -4.2667   -5.2090 H         12 LYS      0.274700
    198 CA          5.2102   -6.2179   -5.8775 CX        12 LYS     -0.240000
    199 HA          5.1506   -7.1923   -5.3927 H1        12 LYS      0.142600
    200 CB          4.1524   -6.0724   -7.0280 CT        12 LYS     -0.009400
    201 HB2         4.2507   -5.1206   -7.5501 HC        12 LYS      0.036200
    202 HB3         4.3649   -6.8426   -7.7694 HC        12 LYS      0.036200
    203 CG          2.6544   -6.2957   -6.5321 CT        12 LYS      0.018700
    204 HG2         2.4165   -5.6675   -5.6737 HC        12 LYS      0.010300
    205 HG3         2.0386   -6.0356   -7.3930 HC        12 LYS      0.010300
    206 CD          2.5082   -7.7743   -6.1764 CT        12 LYS     -0.047900
    207 HD2         3.3487   -8.2180   -5.6427 HC        12 LYS      0.062100
    208 HD3         1.6734   -7.9337   -5.4939 HC        12 LYS      0.062100
    209 CE          2.2609   -8.5924   -7.4205 CT        12 LYS     -0.014300
    210 HE2         1.4444   -8.1564   -7.9963 HP        12 LYS      0.113500
    211 HE3         3.1488   -8.4512   -8.0369 HP        12 LYS      0.113500
    212 NZ          1.8125   -9.9355   -7.1423 N3        12 LYS     -0.385400
    213 HZ1         0.8848   -9.9516   -6.7432 H         12 LYS      0.340000
    214 HZ2         1.6773  -10.5093   -7.9625 H         12 LYS      0.340000
    215 HZ3         2.3616  -10.4297   -6.4536 H         12 LYS      0.340000
    216 C           6.6348   -6.0518   -6.3982 C         12 LYS      0.734100
    217 O           6.8810   -5.1861   -7.2850 O         12 LYS     -0.589400
    218 N           7.6074   -6.7699   -5.8457 N         13 NHE     -0.463000
    219 HN1         7.3703   -7.4605   -5.1478 H         13 NHE      0.231500
    220 HN2         8.5779   -6.5667   -6.0376 H         13 NHE      0.231500
@<TRIPOS>BOND
    1    12    13 1
    2    12    14 1
    3     7    10 1
    4     5     7 1
    5     5    12 1
    6     1     5 1
    7    36    37 1
    8    36    38 1
    9    33    35 1
   10    31    33 1
   11    29    31 1
   12    27    29 1
   13    26    27 1
   14    26    35 1
   15    24    26 1
   16    22    24 1
   17    21    22 1
   18    21    35 1
   19    18    21 1
   20    16    18 1
   21    16    36 1
   22    14    16 1
   23    50    51 1
   24    50    52 1
   25    42    44 1
   26    42    48 1
   27    40    42 1
   28    40    50 1
   29    38    40 1
   30    74    75 1
   31    74    76 1
   32    71    73 1
   33    69    71 1
   34    67    69 1
   35    65    67 1
   36    64    65 1
   37    64    73 1
   38    62    64 1
   39    60    62 1
   40    59    60 1
   41    59    73 1
   42    56    59 1
   43    54    56 1
   44    54    74 1
   45    52    54 1
   46    89    90 1
   47    89    91 1
   48    86    87 1
   49    86    88 1
   50    83    86 1
   51    80    83 1
   52    78    80 1
   53    78    89 1
   54    76    78 1
   55   103   104 1
   56   103   105 1
   57    98    99 1
   58    98   100 1
   59    95    98 1
   60    93    95 1
   61    93   103 1
   62    91    93 1
   63   110   111 1
   64   110   112 1
   65   107   110 1
   66   105   107 1
   67   132   133 1
   68   132   134 1
   69   125   128 1
   70   122   125 1
   71   119   122 1
   72   116   119 1
   73   114   116 1
   74   114   132 1
   75   112   114 1
   76   156   157 1
   77   156   158 1
   78   153   155 1
   79   151   153 1
   80   149   151 1
   81   147   149 1
   82   146   147 1
   83   146   155 1
   84   144   146 1
   85   142   144 1
   86   141   142 1
   87   141   155 1
   88   138   141 1
   89   136   138 1
   90   136   156 1
   91   134   136 1
   92   170   171 1
   93   170   172 1
   94   162   164 1
   95   162   168 1
   96   160   162 1
   97   160   170 1
   98   158   160 1
   99   194   195 1
  100   194   196 1
  101   191   193 1
  102   189   191 1
  103   187   189 1
  104   185   187 1
  105   184   185 1
  106   184   193 1
  107   182   184 1
  108   180   182 1
  109   179   180 1
  110   179   193 1
  111   176   179 1
  112   174   176 1
  113   174   194 1
  114   172   174 1
  115   216   217 1
  116   216   218 1
  117   209   212 1
  118   206   209 1
  119   203   206 1
  120   200   203 1
  121   198   200 1
  122   198   216 1
  123   196   198 1
  124    10    11 1
  125     7     8 1
  126     7     9 1
  127     5     6 1
  128     1     2 1
  129     1     3 1
  130     1     4 1
  131    33    34 1
  132    31    32 1
  133    29    30 1
  134    27    28 1
  135    24    25 1
  136    22    23 1
  137    18    19 1
  138    18    20 1
  139    16    17 1
  140    14    15 1
  141    48    49 1
  142    44    45 1
  143    44    46 1
  144    44    47 1
  145    42    43 1
  146    40    41 1
  147    38    39 1
  148    71    72 1
  149    69    70 1
  150    67    68 1
  151    65    66 1
  152    62    63 1
  153    60    61 1
  154    56    57 1
  155    56    58 1
  156    54    55 1
  157    52    53 1
  158    83    84 1
  159    83    85 1
  160    80    81 1
  161    80    82 1
  162    78    79 1
  163    76    77 1
  164   100   101 1
  165   100   102 1
  166    95    96 1
  167    95    97 1
  168    93    94 1
  169    91    92 1
  170   107   108 1
  171   107   109 1
  172   105   106 1
  173   128   129 1
  174   128   130 1
  175   128   131 1
  176   125   126 1
  177   125   127 1
  178   122   123 1
  179   122   124 1
  180   119   120 1
  181   119   121 1
  182   116   117 1
  183   116   118 1
  184   114   115 1
  185   112   113 1
  186   153   154 1
  187   151   152 1
  188   149   150 1
  189   147   148 1
  190   144   145 1
  191   142   143 1
  192   138   139 1
  193   138   140 1
  194   136   137 1
  195   134   135 1
  196   168   169 1
  197   164   165 1
  198   164   166 1
  199   164   167 1
  200   162   163 1
  201   160   161 1
  202   158   159 1
  203   191   192 1
  204   189   190 1
  205   187   188 1
  206   185   186 1
  207   182   183 1
  208   180   181 1
  209   176   177 1
  210   176   178 1
  211   174   175 1
  212   172   173 1
  213   212   213 1
  214   212   214 1
  215   212   215 1
  216   209   210 1
  217   209   211 1
  218   206   207 1
  219   206   208 1
  220   203   204 1
  221   203   205 1
  222   200   201 1
  223   200   202 1
  224   198   199 1
  225   196   197 1
  226   218   219 1
  227   218   220 1
@<TRIPOS>SUBSTRUCTURE
      1 SER               1 ****               0 ****  **** 
      2 TRP              14 ****               0 ****  **** 
      3 THR              38 ****               0 ****  **** 
      4 TRP              52 ****               0 ****  **** 
      5 GLU              76 ****               0 ****  **** 
      6 ASN              91 ****               0 ****  **** 
      7 GLY             105 ****               0 ****  **** 
      8 LYS             112 ****               0 ****  **** 
      9 TRP             134 ****               0 ****  **** 
     10 THR             158 ****               0 ****  **** 
     11 TRP             172 ****               0 ****  **** 
     12 LYS             196 ****               0 ****  **** 
     13 NHE             218 ****               0 ****  **** 
